LTspice 24.1.5 for Windows
Circuit: C:\Users\kyerk\OneDrive\Documents\MQP\LTspice\Current\LT3753_forward_36V.net
Start Time: Sun Apr 19 09:12:52 2026
Options: reltol=0.005 abstol=1e-8 vntol=1e-5  gmin=1e-10 cshunt=1e-14  method=gear  maxstep=50n  itl4=50
solver = Normal
Maximum thread count: 20
tnom = 27
temp = 27
method = Gear
gmin = 1e-10
abstol = 1e-08
reltol = 0.005
volttol = 1e-05
Per .tran options, skipping operating point for transient analysis.

Simulation stopped by user.
Total elapsed time: 40.217 seconds.

Files loaded:
C:\Users\kyerk\OneDrive\Documents\MQP\LTspice\Current\LT3753_forward_36V.net
C:\Users\kyerk\AppData\Local\LTspice\lib\cmp\standard.dio
C:\Users\kyerk\AppData\Local\LTspice\lib\cmp\standard.mos
C:\Users\kyerk\AppData\Local\LTspice\lib\sub\LT1431.sub
C:\Users\kyerk\AppData\Local\LTspice\lib\sub\LT3753.sub
C:\Users\kyerk\AppData\Local\LTspice\lib\sub\PC817.sub

