LTspice 24.1.5 for Windows
Circuit: C:\Users\kyerk\OneDrive\Documents\MQP\LTspice\Current\LT3753_forward_36V_stacked_nosupplies.net
Start Time: Sun Apr 26 16:42:49 2026
Options: reltol=0.005 abstol=1e-8 vntol=1e-5  gmin=1e-10 cshunt=1e-14  method=gear  maxstep=50n  itl4=50
solver = Normal
Maximum thread count: 20
tnom = 27
temp = 27
method = Gear
gmin = 1e-10
abstol = 1e-08
reltol = 0.005
volttol = 1e-05
Per .tran options, skipping operating point for transient analysis.
Total elapsed time: 1530.447 seconds.

Files loaded:
C:\Users\kyerk\OneDrive\Documents\MQP\LTspice\Current\LT3753_forward_36V_stacked_nosupplies.net
C:\Users\kyerk\AppData\Local\LTspice\lib\cmp\standard.dio
C:\Users\kyerk\AppData\Local\LTspice\lib\cmp\standard.mos
C:\Users\kyerk\AppData\Local\LTspice\lib\sub\LT1431.sub
C:\Users\kyerk\AppData\Local\LTspice\lib\sub\LT3753.sub
C:\Users\kyerk\AppData\Local\LTspice\lib\sub\PC817.sub

Pin: AVG(-V(IN)*I(V1))=4205.42288096 FROM 0.0045 TO 0.005
Pout: AVG(V(OUT)*I(Rload))=3924.3873661 FROM 0.0045 TO 0.005
Eff: Pout/Pin=0.933173066582
Vmax: MAX(V(OUT))=178.299697876 FROM 0.00499 TO 0.005
Vmin: MIN(V(OUT))=178.299255371 FROM 0.00499 TO 0.005
Vripple: Vmax - Vmin=0.000442504882812
Vin_avg: AVG(V(IN))=59.9298274909 FROM 0.0045 TO 0.005
Iin_avg: AVG(I(V1))=-70.172516844 FROM 0.0045 TO 0.005
Vout_avg: AVG(V(OUT))=178.290598869 FROM 0.0045 TO 0.005
Iout_avg: AVG(I(Rload))=22.0111850411 FROM 0.0045 TO 0.005
